*SPEF "IEEE 1481-1998"
*DESIGN "median_filter"
*DATE "Thu May 27 10:05:05 2021"
*VENDOR "Cadence Design Systems, Inc."
*PROGRAM "Encounter"
*VERSION "14.26-s039_1"
*DESIGN_FLOW "COUPLING C" "PIN_CAP NONE" "NAME_SCOPE LOCAL"
*DIVIDER /
*DELIMITER :
*BUS_DELIMITER []
*T_UNIT 1 NS
*C_UNIT 1 PF
*R_UNIT 1 OHM
*L_UNIT 1 HENRY

// MMMC spef file for corner 'rc_worst'

*NAME_MAP

*1 clk__L2_N3
*2 clk__L2_N2
*3 clk__L2_N1
*4 clk__L2_N0
*5 clk__L1_N0
*6 unit_cell_gen_3__unit_cell/FE_OFN3_n144
*7 unit_cell_gen_4__unit_cell/FE_OFN2_n151
*8 FE_DBTN1_T_out_4_
*9 FE_DBTN0_incre_en_3_
*10 X[7]
*11 X[6]
*12 X[5]
*13 X[4]
*14 X[3]
*15 X[2]
*16 X[1]
*17 X[0]
*18 Y[7]
*19 Y[6]
*20 Y[5]
*21 Y[4]
*22 Y[3]
*23 Y[2]
*24 Y[1]
*25 Y[0]
*26 srst
*27 clk
*28 R_out_5__7_
*29 R_out_5__6_
*30 R_out_5__5_
*31 R_out_5__4_
*32 R_out_5__3_
*33 R_out_5__2_
*34 R_out_5__1_
*35 R_out_5__0_
*36 R_out_4__7_
*37 R_out_4__6_
*38 R_out_4__5_
*39 R_out_4__4_
*40 R_out_4__3_
*41 R_out_4__2_
*42 R_out_4__1_
*43 R_out_4__0_
*44 R_out_2__7_
*45 R_out_2__6_
*46 R_out_2__5_
*47 R_out_2__4_
*48 R_out_2__3_
*49 R_out_2__2_
*50 R_out_2__1_
*51 R_out_2__0_
*52 R_out_1__7_
*53 R_out_1__6_
*54 R_out_1__5_
*55 R_out_1__4_
*56 R_out_1__3_
*57 R_out_1__2_
*58 R_out_1__1_
*59 R_out_1__0_
*60 P_out_5__2_
*61 P_out_5__1_
*62 P_out_5__0_
*63 P_out_4__2_
*64 P_out_4__1_
*65 P_out_4__0_
*66 P_out_3__2_
*67 P_out_3__1_
*68 P_out_3__0_
*69 P_out_2__2_
*70 P_out_2__1_
*71 P_out_2__0_
*72 P_out_1__2_
*73 P_out_1__1_
*74 P_out_1__0_
*75 n28
*76 n29
*77 n30
*78 n31
*79 n33
*80 n34
*81 n35
*82 n36
*83 n37
*84 n38
*85 n39
*86 n40
*87 n41
*88 n42
*89 n43
*90 n44
*91 n45
*92 n46
*93 n47
*94 n49
*95 n50
*96 n52
*97 Z_out[4]
*98 Z_out[3]
*99 Z_out[2]
*100 Z_out[1]
*101 T_out[4]
*102 T_out[3]
*103 T_out[2]
*104 T_out[1]
*105 cnt[3]
*106 cnt[2]
*107 cnt[1]
*108 cnt[0]
*109 incre_en[4]
*110 incre_en[3]
*111 incre_en[2]
*112 incre_en[1]
*113 incre_en[0]
*114 unit_cell_gen_1__unit_cell/bit_cnt
*115 unit_cell_gen_1__unit_cell/N49
*116 unit_cell_gen_1__unit_cell/N50
*117 unit_cell_gen_1__unit_cell/N51
*118 unit_cell_gen_1__unit_cell/N56
*119 unit_cell_gen_1__unit_cell/T
*120 unit_cell_gen_1__unit_cell/n12
*121 unit_cell_gen_1__unit_cell/n13
*122 unit_cell_gen_1__unit_cell/n14
*123 unit_cell_gen_1__unit_cell/n18
*124 unit_cell_gen_1__unit_cell/n19
*125 unit_cell_gen_1__unit_cell/n20
*126 unit_cell_gen_1__unit_cell/n21
*127 unit_cell_gen_1__unit_cell/n22
*128 unit_cell_gen_1__unit_cell/n23
*129 unit_cell_gen_1__unit_cell/n24
*130 unit_cell_gen_1__unit_cell/n25
*131 unit_cell_gen_1__unit_cell/n26
*132 unit_cell_gen_1__unit_cell/n27
*133 unit_cell_gen_1__unit_cell/n28
*134 unit_cell_gen_1__unit_cell/n29
*135 unit_cell_gen_1__unit_cell/n30
*136 unit_cell_gen_1__unit_cell/n31
*137 unit_cell_gen_1__unit_cell/n32
*138 unit_cell_gen_1__unit_cell/n33
*139 unit_cell_gen_1__unit_cell/n34
*140 unit_cell_gen_1__unit_cell/n35
*141 unit_cell_gen_1__unit_cell/n36
*142 unit_cell_gen_1__unit_cell/n37
*143 unit_cell_gen_1__unit_cell/n38
*144 unit_cell_gen_1__unit_cell/n39
*145 unit_cell_gen_1__unit_cell/n40
*146 unit_cell_gen_1__unit_cell/n41
*147 unit_cell_gen_1__unit_cell/n42
*148 unit_cell_gen_1__unit_cell/n43
*149 unit_cell_gen_1__unit_cell/n44
*150 unit_cell_gen_1__unit_cell/n45
*151 unit_cell_gen_1__unit_cell/n46
*152 unit_cell_gen_1__unit_cell/n47
*153 unit_cell_gen_1__unit_cell/n48
*154 unit_cell_gen_1__unit_cell/n49
*155 unit_cell_gen_1__unit_cell/n50
*156 unit_cell_gen_1__unit_cell/n51
*157 unit_cell_gen_1__unit_cell/n52
*158 unit_cell_gen_1__unit_cell/n53
*159 unit_cell_gen_1__unit_cell/n54
*160 unit_cell_gen_1__unit_cell/n55
*161 unit_cell_gen_1__unit_cell/n56
*162 unit_cell_gen_1__unit_cell/n57
*163 unit_cell_gen_1__unit_cell/n58
*164 unit_cell_gen_1__unit_cell/n59
*165 unit_cell_gen_1__unit_cell/n60
*166 unit_cell_gen_1__unit_cell/n61
*167 unit_cell_gen_1__unit_cell/n62
*168 unit_cell_gen_1__unit_cell/n63
*169 unit_cell_gen_1__unit_cell/n64
*170 unit_cell_gen_1__unit_cell/n65
*171 unit_cell_gen_1__unit_cell/n66
*172 unit_cell_gen_1__unit_cell/n67
*173 unit_cell_gen_1__unit_cell/n68
*174 unit_cell_gen_1__unit_cell/n69
*175 unit_cell_gen_1__unit_cell/n70
*176 unit_cell_gen_1__unit_cell/n71
*177 unit_cell_gen_1__unit_cell/n7
*178 unit_cell_gen_1__unit_cell/n8
*179 unit_cell_gen_1__unit_cell/n15
*180 unit_cell_gen_1__unit_cell/n72
*181 unit_cell_gen_1__unit_cell/n73
*182 unit_cell_gen_1__unit_cell/n74
*183 unit_cell_gen_1__unit_cell/n76
*184 unit_cell_gen_1__unit_cell/n77
*185 unit_cell_gen_1__unit_cell/n78
*186 unit_cell_gen_1__unit_cell/n79
*187 unit_cell_gen_1__unit_cell/n80
*188 unit_cell_gen_1__unit_cell/n81
*189 unit_cell_gen_1__unit_cell/n82
*190 unit_cell_gen_1__unit_cell/n84
*191 unit_cell_gen_1__unit_cell/n85
*192 unit_cell_gen_1__unit_cell/n86
*193 unit_cell_gen_1__unit_cell/n87
*194 unit_cell_gen_1__unit_cell/n88
*195 unit_cell_gen_1__unit_cell/n90
*196 unit_cell_gen_1__unit_cell/n91
*197 unit_cell_gen_1__unit_cell/n92
*198 unit_cell_gen_1__unit_cell/n93
*199 unit_cell_gen_1__unit_cell/n94
*200 unit_cell_gen_1__unit_cell/n95
*201 unit_cell_gen_1__unit_cell/n97
*202 unit_cell_gen_1__unit_cell/n98
*203 unit_cell_gen_1__unit_cell/n99
*204 unit_cell_gen_1__unit_cell/n100
*205 unit_cell_gen_1__unit_cell/n101
*206 unit_cell_gen_1__unit_cell/n102
*207 unit_cell_gen_1__unit_cell/n103
*208 unit_cell_gen_1__unit_cell/n104
*209 unit_cell_gen_1__unit_cell/n106
*210 unit_cell_gen_1__unit_cell/n107
*211 unit_cell_gen_1__unit_cell/n108
*212 unit_cell_gen_1__unit_cell/n109
*213 unit_cell_gen_1__unit_cell/n110
*214 unit_cell_gen_1__unit_cell/n111
*215 unit_cell_gen_1__unit_cell/n112
*216 unit_cell_gen_1__unit_cell/n114
*217 unit_cell_gen_2__unit_cell/bit_cnt
*218 unit_cell_gen_2__unit_cell/N49
*219 unit_cell_gen_2__unit_cell/N50
*220 unit_cell_gen_2__unit_cell/N51
*221 unit_cell_gen_2__unit_cell/N56
*222 unit_cell_gen_2__unit_cell/T
*223 unit_cell_gen_2__unit_cell/n1
*224 unit_cell_gen_2__unit_cell/n2
*225 unit_cell_gen_2__unit_cell/n3
*226 unit_cell_gen_2__unit_cell/n4
*227 unit_cell_gen_2__unit_cell/n6
*228 unit_cell_gen_2__unit_cell/n7
*229 unit_cell_gen_2__unit_cell/n8
*230 unit_cell_gen_2__unit_cell/n9
*231 unit_cell_gen_2__unit_cell/n10
*232 unit_cell_gen_2__unit_cell/n11
*233 unit_cell_gen_2__unit_cell/n15
*234 unit_cell_gen_2__unit_cell/n16
*235 unit_cell_gen_2__unit_cell/n17
*236 unit_cell_gen_2__unit_cell/n72
*237 unit_cell_gen_2__unit_cell/n73
*238 unit_cell_gen_2__unit_cell/n74
*239 unit_cell_gen_2__unit_cell/n75
*240 unit_cell_gen_2__unit_cell/n76
*241 unit_cell_gen_2__unit_cell/n79
*242 unit_cell_gen_2__unit_cell/n80
*243 unit_cell_gen_2__unit_cell/n81
*244 unit_cell_gen_2__unit_cell/n82
*245 unit_cell_gen_2__unit_cell/n83
*246 unit_cell_gen_2__unit_cell/n84
*247 unit_cell_gen_2__unit_cell/n85
*248 unit_cell_gen_2__unit_cell/n86
*249 unit_cell_gen_2__unit_cell/n87
*250 unit_cell_gen_2__unit_cell/n88
*251 unit_cell_gen_2__unit_cell/n89
*252 unit_cell_gen_2__unit_cell/n90
*253 unit_cell_gen_2__unit_cell/n91
*254 unit_cell_gen_2__unit_cell/n92
*255 unit_cell_gen_2__unit_cell/n93
*256 unit_cell_gen_2__unit_cell/n94
*257 unit_cell_gen_2__unit_cell/n95
*258 unit_cell_gen_2__unit_cell/n96
*259 unit_cell_gen_2__unit_cell/n97
*260 unit_cell_gen_2__unit_cell/n98
*261 unit_cell_gen_2__unit_cell/n99
*262 unit_cell_gen_2__unit_cell/n100
*263 unit_cell_gen_2__unit_cell/n101
*264 unit_cell_gen_2__unit_cell/n102
*265 unit_cell_gen_2__unit_cell/n103
*266 unit_cell_gen_2__unit_cell/n104
*267 unit_cell_gen_2__unit_cell/n105
*268 unit_cell_gen_2__unit_cell/n106
*269 unit_cell_gen_2__unit_cell/n107
*270 unit_cell_gen_2__unit_cell/n108
*271 unit_cell_gen_2__unit_cell/n109
*272 unit_cell_gen_2__unit_cell/n110
*273 unit_cell_gen_2__unit_cell/n111
*274 unit_cell_gen_2__unit_cell/n112
*275 unit_cell_gen_2__unit_cell/n113
*276 unit_cell_gen_2__unit_cell/n114
*277 unit_cell_gen_2__unit_cell/n115
*278 unit_cell_gen_2__unit_cell/n116
*279 unit_cell_gen_2__unit_cell/n117
*280 unit_cell_gen_2__unit_cell/n118
*281 unit_cell_gen_2__unit_cell/n119
*282 unit_cell_gen_2__unit_cell/n120
*283 unit_cell_gen_2__unit_cell/n121
*284 unit_cell_gen_2__unit_cell/n122
*285 unit_cell_gen_2__unit_cell/n123
*286 unit_cell_gen_2__unit_cell/n124
*287 unit_cell_gen_2__unit_cell/n125
*288 unit_cell_gen_2__unit_cell/n126
*289 unit_cell_gen_2__unit_cell/n127
*290 unit_cell_gen_2__unit_cell/n128
*291 unit_cell_gen_2__unit_cell/n129
*292 unit_cell_gen_2__unit_cell/n130
*293 unit_cell_gen_2__unit_cell/n131
*294 unit_cell_gen_2__unit_cell/n132
*295 unit_cell_gen_2__unit_cell/n133
*296 unit_cell_gen_2__unit_cell/n134
*297 unit_cell_gen_2__unit_cell/n135
*298 unit_cell_gen_2__unit_cell/n136
*299 unit_cell_gen_2__unit_cell/n137
*300 unit_cell_gen_2__unit_cell/n138
*301 unit_cell_gen_2__unit_cell/n139
*302 unit_cell_gen_2__unit_cell/n140
*303 unit_cell_gen_2__unit_cell/n141
*304 unit_cell_gen_2__unit_cell/n142
*305 unit_cell_gen_2__unit_cell/n143
*306 unit_cell_gen_2__unit_cell/n144
*307 unit_cell_gen_2__unit_cell/n145
*308 unit_cell_gen_2__unit_cell/n146
*309 unit_cell_gen_2__unit_cell/n147
*310 unit_cell_gen_2__unit_cell/n148
*311 unit_cell_gen_2__unit_cell/n149
*312 unit_cell_gen_2__unit_cell/n150
*313 unit_cell_gen_2__unit_cell/n151
*314 unit_cell_gen_2__unit_cell/n152
*315 unit_cell_gen_2__unit_cell/n153
*316 unit_cell_gen_2__unit_cell/n154
*317 unit_cell_gen_2__unit_cell/n155
*318 unit_cell_gen_3__unit_cell/bit_cnt
*319 unit_cell_gen_3__unit_cell/N49
*320 unit_cell_gen_3__unit_cell/N50
*321 unit_cell_gen_3__unit_cell/N51
*322 unit_cell_gen_3__unit_cell/N56
*323 unit_cell_gen_3__unit_cell/T
*324 unit_cell_gen_3__unit_cell/n2
*325 unit_cell_gen_3__unit_cell/n4
*326 unit_cell_gen_3__unit_cell/n5
*327 unit_cell_gen_3__unit_cell/n6
*328 unit_cell_gen_3__unit_cell/n7
*329 unit_cell_gen_3__unit_cell/n8
*330 unit_cell_gen_3__unit_cell/n9
*331 unit_cell_gen_3__unit_cell/n10
*332 unit_cell_gen_3__unit_cell/n11
*333 unit_cell_gen_3__unit_cell/n15
*334 unit_cell_gen_3__unit_cell/n16
*335 unit_cell_gen_3__unit_cell/n17
*336 unit_cell_gen_3__unit_cell/n72
*337 unit_cell_gen_3__unit_cell/n73
*338 unit_cell_gen_3__unit_cell/n74
*339 unit_cell_gen_3__unit_cell/n77
*340 unit_cell_gen_3__unit_cell/n78
*341 unit_cell_gen_3__unit_cell/n79
*342 unit_cell_gen_3__unit_cell/n80
*343 unit_cell_gen_3__unit_cell/n81
*344 unit_cell_gen_3__unit_cell/n82
*345 unit_cell_gen_3__unit_cell/n83
*346 unit_cell_gen_3__unit_cell/n84
*347 unit_cell_gen_3__unit_cell/n85
*348 unit_cell_gen_3__unit_cell/n86
*349 unit_cell_gen_3__unit_cell/n87
*350 unit_cell_gen_3__unit_cell/n88
*351 unit_cell_gen_3__unit_cell/n89
*352 unit_cell_gen_3__unit_cell/n90
*353 unit_cell_gen_3__unit_cell/n91
*354 unit_cell_gen_3__unit_cell/n92
*355 unit_cell_gen_3__unit_cell/n93
*356 unit_cell_gen_3__unit_cell/n94
*357 unit_cell_gen_3__unit_cell/n95
*358 unit_cell_gen_3__unit_cell/n96
*359 unit_cell_gen_3__unit_cell/n97
*360 unit_cell_gen_3__unit_cell/n98
*361 unit_cell_gen_3__unit_cell/n99
*362 unit_cell_gen_3__unit_cell/n100
*363 unit_cell_gen_3__unit_cell/n101
*364 unit_cell_gen_3__unit_cell/n102
*365 unit_cell_gen_3__unit_cell/n103
*366 unit_cell_gen_3__unit_cell/n104
*367 unit_cell_gen_3__unit_cell/n105
*368 unit_cell_gen_3__unit_cell/n106
*369 unit_cell_gen_3__unit_cell/n107
*370 unit_cell_gen_3__unit_cell/n108
*371 unit_cell_gen_3__unit_cell/n109
*372 unit_cell_gen_3__unit_cell/n110
*373 unit_cell_gen_3__unit_cell/n111
*374 unit_cell_gen_3__unit_cell/n112
*375 unit_cell_gen_3__unit_cell/n113
*376 unit_cell_gen_3__unit_cell/n114
*377 unit_cell_gen_3__unit_cell/n115
*378 unit_cell_gen_3__unit_cell/n116
*379 unit_cell_gen_3__unit_cell/n117
*380 unit_cell_gen_3__unit_cell/n118
*381 unit_cell_gen_3__unit_cell/n119
*382 unit_cell_gen_3__unit_cell/n120
*383 unit_cell_gen_3__unit_cell/n121
*384 unit_cell_gen_3__unit_cell/n122
*385 unit_cell_gen_3__unit_cell/n123
*386 unit_cell_gen_3__unit_cell/n124
*387 unit_cell_gen_3__unit_cell/n125
*388 unit_cell_gen_3__unit_cell/n126
*389 unit_cell_gen_3__unit_cell/n127
*390 unit_cell_gen_3__unit_cell/n128
*391 unit_cell_gen_3__unit_cell/n129
*392 unit_cell_gen_3__unit_cell/n130
*393 unit_cell_gen_3__unit_cell/n131
*394 unit_cell_gen_3__unit_cell/n132
*395 unit_cell_gen_3__unit_cell/n133
*396 unit_cell_gen_3__unit_cell/n134
*397 unit_cell_gen_3__unit_cell/n135
*398 unit_cell_gen_3__unit_cell/n136
*399 unit_cell_gen_3__unit_cell/n137
*400 unit_cell_gen_3__unit_cell/n138
*401 unit_cell_gen_3__unit_cell/n139
*402 unit_cell_gen_3__unit_cell/n140
*403 unit_cell_gen_3__unit_cell/n141
*404 unit_cell_gen_3__unit_cell/n142
*405 unit_cell_gen_3__unit_cell/n143
*406 unit_cell_gen_3__unit_cell/n144
*407 unit_cell_gen_3__unit_cell/n145
*408 unit_cell_gen_3__unit_cell/n146
*409 unit_cell_gen_3__unit_cell/n147
*410 unit_cell_gen_3__unit_cell/n148
*411 unit_cell_gen_3__unit_cell/n149
*412 unit_cell_gen_3__unit_cell/n150
*413 unit_cell_gen_3__unit_cell/n151
*414 unit_cell_gen_3__unit_cell/n152
*415 unit_cell_gen_3__unit_cell/n153
*416 unit_cell_gen_3__unit_cell/n154
*417 unit_cell_gen_4__unit_cell/bit_cnt
*418 unit_cell_gen_4__unit_cell/N49
*419 unit_cell_gen_4__unit_cell/N50
*420 unit_cell_gen_4__unit_cell/N51
*421 unit_cell_gen_4__unit_cell/N56
*422 unit_cell_gen_4__unit_cell/T
*423 unit_cell_gen_4__unit_cell/n1
*424 unit_cell_gen_4__unit_cell/n3
*425 unit_cell_gen_4__unit_cell/n9
*426 unit_cell_gen_4__unit_cell/n10
*427 unit_cell_gen_4__unit_cell/n11
*428 unit_cell_gen_4__unit_cell/n15
*429 unit_cell_gen_4__unit_cell/n16
*430 unit_cell_gen_4__unit_cell/n17
*431 unit_cell_gen_4__unit_cell/n72
*432 unit_cell_gen_4__unit_cell/n73
*433 unit_cell_gen_4__unit_cell/n74
*434 unit_cell_gen_4__unit_cell/n75
*435 unit_cell_gen_4__unit_cell/n76
*436 unit_cell_gen_4__unit_cell/n77
*437 unit_cell_gen_4__unit_cell/n78
*438 unit_cell_gen_4__unit_cell/n79
*439 unit_cell_gen_4__unit_cell/n82
*440 unit_cell_gen_4__unit_cell/n83
*441 unit_cell_gen_4__unit_cell/n84
*442 unit_cell_gen_4__unit_cell/n85
*443 unit_cell_gen_4__unit_cell/n86
*444 unit_cell_gen_4__unit_cell/n87
*445 unit_cell_gen_4__unit_cell/n88
*446 unit_cell_gen_4__unit_cell/n89
*447 unit_cell_gen_4__unit_cell/n90
*448 unit_cell_gen_4__unit_cell/n91
*449 unit_cell_gen_4__unit_cell/n92
*450 unit_cell_gen_4__unit_cell/n93
*451 unit_cell_gen_4__unit_cell/n94
*452 unit_cell_gen_4__unit_cell/n95
*453 unit_cell_gen_4__unit_cell/n96
*454 unit_cell_gen_4__unit_cell/n97
*455 unit_cell_gen_4__unit_cell/n98
*456 unit_cell_gen_4__unit_cell/n100
*457 unit_cell_gen_4__unit_cell/n101
*458 unit_cell_gen_4__unit_cell/n103
*459 unit_cell_gen_4__unit_cell/n104
*460 unit_cell_gen_4__unit_cell/n105
*461 unit_cell_gen_4__unit_cell/n106
*462 unit_cell_gen_4__unit_cell/n107
*463 unit_cell_gen_4__unit_cell/n108
*464 unit_cell_gen_4__unit_cell/n109
*465 unit_cell_gen_4__unit_cell/n110
*466 unit_cell_gen_4__unit_cell/n111
*467 unit_cell_gen_4__unit_cell/n113
*468 unit_cell_gen_4__unit_cell/n114
*469 unit_cell_gen_4__unit_cell/n115
*470 unit_cell_gen_4__unit_cell/n116
*471 unit_cell_gen_4__unit_cell/n117
*472 unit_cell_gen_4__unit_cell/n118
*473 unit_cell_gen_4__unit_cell/n119
*474 unit_cell_gen_4__unit_cell/n120
*475 unit_cell_gen_4__unit_cell/n121
*476 unit_cell_gen_4__unit_cell/n123
*477 unit_cell_gen_4__unit_cell/n124
*478 unit_cell_gen_4__unit_cell/n125
*479 unit_cell_gen_4__unit_cell/n126
*480 unit_cell_gen_4__unit_cell/n127
*481 unit_cell_gen_4__unit_cell/n128
*482 unit_cell_gen_4__unit_cell/n129
*483 unit_cell_gen_4__unit_cell/n130
*484 unit_cell_gen_4__unit_cell/n131
*485 unit_cell_gen_4__unit_cell/n132
*486 unit_cell_gen_4__unit_cell/n133
*487 unit_cell_gen_4__unit_cell/n134
*488 unit_cell_gen_4__unit_cell/n135
*489 unit_cell_gen_4__unit_cell/n136
*490 unit_cell_gen_4__unit_cell/n137
*491 unit_cell_gen_4__unit_cell/n138
*492 unit_cell_gen_4__unit_cell/n139
*493 unit_cell_gen_4__unit_cell/n140
*494 unit_cell_gen_4__unit_cell/n141
*495 unit_cell_gen_4__unit_cell/n142
*496 unit_cell_gen_4__unit_cell/n143
*497 unit_cell_gen_4__unit_cell/n144
*498 unit_cell_gen_4__unit_cell/n145
*499 unit_cell_gen_4__unit_cell/n146
*500 unit_cell_gen_4__unit_cell/n147
*501 unit_cell_gen_4__unit_cell/n148
*502 unit_cell_gen_4__unit_cell/n149
*503 unit_cell_gen_4__unit_cell/n150
*504 unit_cell_gen_4__unit_cell/n151
*505 unit_cell_gen_4__unit_cell/n152
*506 unit_cell_gen_4__unit_cell/n153
*507 unit_cell_gen_4__unit_cell/n154
*508 unit_cell_gen_4__unit_cell/n155
*509 unit_cell_gen_4__unit_cell/n156
*510 unit_cell_gen_4__unit_cell/n157
*511 unit_cell_gen_4__unit_cell/n158
*512 unit_cell_gen_4__unit_cell/n159
*513 unit_cell_gen_4__unit_cell/n160
*514 unit_cell_gen_4__unit_cell/n161
*515 unit_cell_gen_4__unit_cell/n162
*516 unit_cell_gen_5__unit_cell/Z_to_plus10
*517 unit_cell_gen_5__unit_cell/bit_cnt
*518 unit_cell_gen_5__unit_cell/N49
*519 unit_cell_gen_5__unit_cell/N50
*520 unit_cell_gen_5__unit_cell/N51
*521 unit_cell_gen_5__unit_cell/N56
*522 unit_cell_gen_5__unit_cell/T
*523 unit_cell_gen_5__unit_cell/n4
*524 unit_cell_gen_5__unit_cell/n7
*525 unit_cell_gen_5__unit_cell/n8
*526 unit_cell_gen_5__unit_cell/n9
*527 unit_cell_gen_5__unit_cell/n11
*528 unit_cell_gen_5__unit_cell/n73
*529 unit_cell_gen_5__unit_cell/n74
*530 unit_cell_gen_5__unit_cell/n75
*531 unit_cell_gen_5__unit_cell/n76
*532 unit_cell_gen_5__unit_cell/n77
*533 unit_cell_gen_5__unit_cell/n78
*534 unit_cell_gen_5__unit_cell/n79
*535 unit_cell_gen_5__unit_cell/n80
*536 unit_cell_gen_5__unit_cell/n81
*537 unit_cell_gen_5__unit_cell/n82
*538 unit_cell_gen_5__unit_cell/n83
*539 unit_cell_gen_5__unit_cell/n84
*540 unit_cell_gen_5__unit_cell/n85
*541 unit_cell_gen_5__unit_cell/n86
*542 unit_cell_gen_5__unit_cell/n89
*543 unit_cell_gen_5__unit_cell/n90
*544 unit_cell_gen_5__unit_cell/n91
*545 unit_cell_gen_5__unit_cell/n92
*546 unit_cell_gen_5__unit_cell/n93
*547 unit_cell_gen_5__unit_cell/n94
*548 unit_cell_gen_5__unit_cell/n95
*549 unit_cell_gen_5__unit_cell/n96
*550 unit_cell_gen_5__unit_cell/n97
*551 unit_cell_gen_5__unit_cell/n98
*552 unit_cell_gen_5__unit_cell/n99
*553 unit_cell_gen_5__unit_cell/n100
*554 unit_cell_gen_5__unit_cell/n101
*555 unit_cell_gen_5__unit_cell/n102
*556 unit_cell_gen_5__unit_cell/n103
*557 unit_cell_gen_5__unit_cell/n104
*558 unit_cell_gen_5__unit_cell/n106
*559 unit_cell_gen_5__unit_cell/n107
*560 unit_cell_gen_5__unit_cell/n108
*561 unit_cell_gen_5__unit_cell/n109
*562 unit_cell_gen_5__unit_cell/n110
*563 unit_cell_gen_5__unit_cell/n111
*564 unit_cell_gen_5__unit_cell/n112
*565 unit_cell_gen_5__unit_cell/n113
*566 unit_cell_gen_5__unit_cell/n114
*567 unit_cell_gen_5__unit_cell/n115
*568 unit_cell_gen_5__unit_cell/n116
*569 unit_cell_gen_5__unit_cell/n117
*570 unit_cell_gen_5__unit_cell/n118
*571 unit_cell_gen_5__unit_cell/n119
*572 unit_cell_gen_5__unit_cell/n120
*573 unit_cell_gen_5__unit_cell/n121
*574 unit_cell_gen_5__unit_cell/n122
*575 unit_cell_gen_5__unit_cell/n123
*576 unit_cell_gen_5__unit_cell/n124
*577 unit_cell_gen_5__unit_cell/n125
*578 unit_cell_gen_5__unit_cell/n126
*579 unit_cell_gen_5__unit_cell/n127
*580 unit_cell_gen_5__unit_cell/n128
*581 unit_cell_gen_5__unit_cell/n129
*582 unit_cell_gen_5__unit_cell/n130
*583 unit_cell_gen_5__unit_cell/n131
*584 unit_cell_gen_5__unit_cell/n132
*585 unit_cell_gen_5__unit_cell/n133
*586 unit_cell_gen_5__unit_cell/n134
*587 unit_cell_gen_5__unit_cell/n135
*588 unit_cell_gen_5__unit_cell/n136
*589 unit_cell_gen_5__unit_cell/n137
*590 unit_cell_gen_5__unit_cell/n138
*591 unit_cell_gen_5__unit_cell/n139
*592 unit_cell_gen_5__unit_cell/n140
*593 unit_cell_gen_5__unit_cell/n141
*594 unit_cell_gen_5__unit_cell/n142
*595 unit_cell_gen_5__unit_cell/n143
*596 unit_cell_gen_5__unit_cell/n144
*597 unit_cell_gen_5__unit_cell/n145
*598 unit_cell_gen_5__unit_cell/n146
*599 unit_cell_gen_5__unit_cell/n147
*600 unit_cell_gen_5__unit_cell/n148
*601 unit_cell_gen_5__unit_cell/n149
*602 unit_cell_gen_5__unit_cell/n150
*603 unit_cell_gen_5__unit_cell/n151
*604 unit_cell_gen_5__unit_cell/n152
*605 unit_cell_gen_5__unit_cell/n153
*606 unit_cell_gen_5__unit_cell/n154
*607 unit_cell_gen_5__unit_cell/n155
*608 unit_cell_gen_5__unit_cell/n156
*609 unit_cell_gen_5__unit_cell/n157
*610 unit_cell_gen_5__unit_cell/n158
*611 unit_cell_gen_5__unit_cell/n159
*612 unit_cell_gen_5__unit_cell/n160
*613 unit_cell_gen_5__unit_cell/n161
*614 unit_cell_gen_5__unit_cell/n162
*615 unit_cell_gen_5__unit_cell/n163
*616 unit_cell_gen_5__unit_cell/n164
*617 unit_cell_gen_5__unit_cell/n165
*618 unit_cell_gen_5__unit_cell/n166
*619 unit_cell_gen_5__unit_cell/n167
*620 clk__L2_I3
*621 clk__L2_I2
*622 clk__L2_I1
*623 clk__L2_I0
*624 clk__L1_I0
*625 FE_DBTC1_T_out_4_
*626 FE_DBTC0_incre_en_3_
*627 cnt_reg_0_
*628 cnt_reg_1_
*629 cnt_reg_2_
*630 U25
*631 U26
*632 unit_cell_gen_1__unit_cell/P_reg_0_
*633 unit_cell_gen_1__unit_cell/P_reg_1_
*634 unit_cell_gen_1__unit_cell/P_reg_2_
*635 unit_cell_gen_1__unit_cell/U70
*636 unit_cell_gen_1__unit_cell/U71
*637 unit_cell_gen_1__unit_cell/U72
*638 unit_cell_gen_1__unit_cell/U73
*639 unit_cell_gen_1__unit_cell/U74
*640 unit_cell_gen_1__unit_cell/bit_cnt_reg
*641 unit_cell_gen_1__unit_cell/R_reg_7_
*642 unit_cell_gen_1__unit_cell/R_reg_6_
*643 unit_cell_gen_1__unit_cell/R_reg_5_
*644 unit_cell_gen_1__unit_cell/R_reg_4_
*645 unit_cell_gen_1__unit_cell/R_reg_3_
*646 unit_cell_gen_1__unit_cell/R_reg_2_
*647 unit_cell_gen_1__unit_cell/R_reg_1_
*648 unit_cell_gen_1__unit_cell/R_reg_0_
*649 unit_cell_gen_1__unit_cell/U6
*650 unit_cell_gen_1__unit_cell/U8
*651 unit_cell_gen_1__unit_cell/U10
*652 unit_cell_gen_1__unit_cell/U17
*653 unit_cell_gen_1__unit_cell/U18
*654 unit_cell_gen_1__unit_cell/U29
*655 unit_cell_gen_1__unit_cell/U30
*656 unit_cell_gen_1__unit_cell/U31
*657 unit_cell_gen_1__unit_cell/U32
*658 unit_cell_gen_1__unit_cell/U33
*659 unit_cell_gen_1__unit_cell/U35
*660 unit_cell_gen_1__unit_cell/U36
*661 unit_cell_gen_1__unit_cell/U37
*662 unit_cell_gen_1__unit_cell/U38
*663 unit_cell_gen_1__unit_cell/U39
*664 unit_cell_gen_1__unit_cell/U40
*665 unit_cell_gen_1__unit_cell/U41
*666 unit_cell_gen_1__unit_cell/U42
*667 unit_cell_gen_1__unit_cell/U43
*668 unit_cell_gen_1__unit_cell/U45
*669 unit_cell_gen_1__unit_cell/U46
*670 unit_cell_gen_1__unit_cell/U47
*671 unit_cell_gen_1__unit_cell/U48
*672 unit_cell_gen_1__unit_cell/U49
*673 unit_cell_gen_1__unit_cell/U50
*674 unit_cell_gen_1__unit_cell/U51
*675 unit_cell_gen_1__unit_cell/U52
*676 unit_cell_gen_1__unit_cell/U53
*677 unit_cell_gen_1__unit_cell/U54
*678 unit_cell_gen_1__unit_cell/U55
*679 unit_cell_gen_1__unit_cell/U56
*680 unit_cell_gen_1__unit_cell/U57
*681 unit_cell_gen_1__unit_cell/U58
*682 unit_cell_gen_1__unit_cell/U59
*683 unit_cell_gen_1__unit_cell/U60
*684 unit_cell_gen_1__unit_cell/U61
*685 unit_cell_gen_1__unit_cell/U62
*686 unit_cell_gen_1__unit_cell/U63
*687 unit_cell_gen_1__unit_cell/U64
*688 unit_cell_gen_1__unit_cell/U65
*689 unit_cell_gen_1__unit_cell/U66
*690 unit_cell_gen_1__unit_cell/U67
*691 unit_cell_gen_1__unit_cell/U68
*692 unit_cell_gen_1__unit_cell/U69
*693 unit_cell_gen_1__unit_cell/U75
*694 unit_cell_gen_1__unit_cell/U76
*695 unit_cell_gen_1__unit_cell/U77
*696 unit_cell_gen_1__unit_cell/U78
*697 unit_cell_gen_1__unit_cell/U79
*698 unit_cell_gen_1__unit_cell/U80
*699 unit_cell_gen_1__unit_cell/U81
*700 unit_cell_gen_1__unit_cell/U82
*701 unit_cell_gen_1__unit_cell/U83
*702 unit_cell_gen_1__unit_cell/U84
*703 unit_cell_gen_1__unit_cell/U85
*704 unit_cell_gen_1__unit_cell/U86
*705 unit_cell_gen_1__unit_cell/U87
*706 unit_cell_gen_1__unit_cell/U88
*707 unit_cell_gen_1__unit_cell/U89
*708 unit_cell_gen_1__unit_cell/U90
*709 unit_cell_gen_1__unit_cell/U91
*710 unit_cell_gen_1__unit_cell/U92
*711 unit_cell_gen_1__unit_cell/U93
*712 unit_cell_gen_1__unit_cell/U94
*713 unit_cell_gen_1__unit_cell/U95
*714 unit_cell_gen_1__unit_cell/U97
*715 unit_cell_gen_1__unit_cell/U100
*716 unit_cell_gen_1__unit_cell/U101
*717 unit_cell_gen_1__unit_cell/U102
*718 unit_cell_gen_1__unit_cell/U103
*719 unit_cell_gen_1__unit_cell/U107
*720 unit_cell_gen_1__unit_cell/U108
*721 unit_cell_gen_1__unit_cell/U109
*722 unit_cell_gen_1__unit_cell/U3
*723 unit_cell_gen_1__unit_cell/U4
*724 unit_cell_gen_1__unit_cell/U5
*725 unit_cell_gen_1__unit_cell/U7
*726 unit_cell_gen_1__unit_cell/U9
*727 unit_cell_gen_1__unit_cell/U11
*728 unit_cell_gen_1__unit_cell/U12
*729 unit_cell_gen_1__unit_cell/U13
*730 unit_cell_gen_1__unit_cell/U14
*731 unit_cell_gen_1__unit_cell/U15
*732 unit_cell_gen_1__unit_cell/U16
*733 unit_cell_gen_1__unit_cell/U20
*734 unit_cell_gen_1__unit_cell/U21
*735 unit_cell_gen_1__unit_cell/U22
*736 unit_cell_gen_1__unit_cell/U23
*737 unit_cell_gen_1__unit_cell/U24
*738 unit_cell_gen_1__unit_cell/U25
*739 unit_cell_gen_1__unit_cell/U26
*740 unit_cell_gen_1__unit_cell/U27
*741 unit_cell_gen_2__unit_cell/U70
*742 unit_cell_gen_2__unit_cell/U71
*743 unit_cell_gen_2__unit_cell/U72
*744 unit_cell_gen_2__unit_cell/U73
*745 unit_cell_gen_2__unit_cell/U74
*746 unit_cell_gen_2__unit_cell/bit_cnt_reg
*747 unit_cell_gen_2__unit_cell/R_reg_7_
*748 unit_cell_gen_2__unit_cell/R_reg_6_
*749 unit_cell_gen_2__unit_cell/R_reg_5_
*750 unit_cell_gen_2__unit_cell/R_reg_4_
*751 unit_cell_gen_2__unit_cell/R_reg_2_
*752 unit_cell_gen_2__unit_cell/R_reg_1_
*753 unit_cell_gen_2__unit_cell/R_reg_0_
*754 unit_cell_gen_2__unit_cell/R_reg_3_
*755 unit_cell_gen_2__unit_cell/P_reg_1_
*756 unit_cell_gen_2__unit_cell/P_reg_0_
*757 unit_cell_gen_2__unit_cell/P_reg_2_
*758 unit_cell_gen_2__unit_cell/U4
*759 unit_cell_gen_2__unit_cell/U5
*760 unit_cell_gen_2__unit_cell/U6
*761 unit_cell_gen_2__unit_cell/U7
*762 unit_cell_gen_2__unit_cell/U8
*763 unit_cell_gen_2__unit_cell/U9
*764 unit_cell_gen_2__unit_cell/U14
*765 unit_cell_gen_2__unit_cell/U15
*766 unit_cell_gen_2__unit_cell/U16
*767 unit_cell_gen_2__unit_cell/U17
*768 unit_cell_gen_2__unit_cell/U18
*769 unit_cell_gen_2__unit_cell/U20
*770 unit_cell_gen_2__unit_cell/U21
*771 unit_cell_gen_2__unit_cell/U22
*772 unit_cell_gen_2__unit_cell/U23
*773 unit_cell_gen_2__unit_cell/U24
*774 unit_cell_gen_2__unit_cell/U25
*775 unit_cell_gen_2__unit_cell/U26
*776 unit_cell_gen_2__unit_cell/U27
*777 unit_cell_gen_2__unit_cell/U28
*778 unit_cell_gen_2__unit_cell/U29
*779 unit_cell_gen_2__unit_cell/U30
*780 unit_cell_gen_2__unit_cell/U31
*781 unit_cell_gen_2__unit_cell/U32
*782 unit_cell_gen_2__unit_cell/U33
*783 unit_cell_gen_2__unit_cell/U34
*784 unit_cell_gen_2__unit_cell/U35
*785 unit_cell_gen_2__unit_cell/U36
*786 unit_cell_gen_2__unit_cell/U37
*787 unit_cell_gen_2__unit_cell/U38
*788 unit_cell_gen_2__unit_cell/U39
*789 unit_cell_gen_2__unit_cell/U40
*790 unit_cell_gen_2__unit_cell/U41
*791 unit_cell_gen_2__unit_cell/U42
*792 unit_cell_gen_2__unit_cell/U43
*793 unit_cell_gen_2__unit_cell/U44
*794 unit_cell_gen_2__unit_cell/U45
*795 unit_cell_gen_2__unit_cell/U46
*796 unit_cell_gen_2__unit_cell/U47
*797 unit_cell_gen_2__unit_cell/U48
*798 unit_cell_gen_2__unit_cell/U49
*799 unit_cell_gen_2__unit_cell/U50
*800 unit_cell_gen_2__unit_cell/U52
*801 unit_cell_gen_2__unit_cell/U53
*802 unit_cell_gen_2__unit_cell/U54
*803 unit_cell_gen_2__unit_cell/U55
*804 unit_cell_gen_2__unit_cell/U56
*805 unit_cell_gen_2__unit_cell/U57
*806 unit_cell_gen_2__unit_cell/U58
*807 unit_cell_gen_2__unit_cell/U59
*808 unit_cell_gen_2__unit_cell/U60
*809 unit_cell_gen_2__unit_cell/U61
*810 unit_cell_gen_2__unit_cell/U62
*811 unit_cell_gen_2__unit_cell/U63
*812 unit_cell_gen_2__unit_cell/U64
*813 unit_cell_gen_2__unit_cell/U65
*814 unit_cell_gen_2__unit_cell/U66
*815 unit_cell_gen_2__unit_cell/U67
*816 unit_cell_gen_2__unit_cell/U68
*817 unit_cell_gen_2__unit_cell/U69
*818 unit_cell_gen_2__unit_cell/U75
*819 unit_cell_gen_2__unit_cell/U76
*820 unit_cell_gen_2__unit_cell/U77
*821 unit_cell_gen_2__unit_cell/U78
*822 unit_cell_gen_2__unit_cell/U79
*823 unit_cell_gen_2__unit_cell/U80
*824 unit_cell_gen_2__unit_cell/U81
*825 unit_cell_gen_2__unit_cell/U82
*826 unit_cell_gen_2__unit_cell/U83
*827 unit_cell_gen_2__unit_cell/U84
*828 unit_cell_gen_2__unit_cell/U85
*829 unit_cell_gen_2__unit_cell/U86
*830 unit_cell_gen_2__unit_cell/U87
*831 unit_cell_gen_2__unit_cell/U88
*832 unit_cell_gen_2__unit_cell/U89
*833 unit_cell_gen_2__unit_cell/U90
*834 unit_cell_gen_2__unit_cell/U93
*835 unit_cell_gen_2__unit_cell/U94
*836 unit_cell_gen_2__unit_cell/U95
*837 unit_cell_gen_2__unit_cell/U96
*838 unit_cell_gen_2__unit_cell/U3
*839 unit_cell_gen_2__unit_cell/U10
*840 unit_cell_gen_2__unit_cell/U11
*841 unit_cell_gen_2__unit_cell/U12
*842 unit_cell_gen_2__unit_cell/U13
*843 unit_cell_gen_2__unit_cell/U19
*844 unit_cell_gen_2__unit_cell/U51
*845 unit_cell_gen_2__unit_cell/U91
*846 unit_cell_gen_2__unit_cell/U92
*847 unit_cell_gen_2__unit_cell/U97
*848 unit_cell_gen_3__unit_cell/FE_OFC3_n144
*849 unit_cell_gen_3__unit_cell/U70
*850 unit_cell_gen_3__unit_cell/U71
*851 unit_cell_gen_3__unit_cell/U72
*852 unit_cell_gen_3__unit_cell/U73
*853 unit_cell_gen_3__unit_cell/U74
*854 unit_cell_gen_3__unit_cell/bit_cnt_reg
*855 unit_cell_gen_3__unit_cell/R_reg_0_
*856 unit_cell_gen_3__unit_cell/R_reg_7_
*857 unit_cell_gen_3__unit_cell/R_reg_6_
*858 unit_cell_gen_3__unit_cell/R_reg_5_
*859 unit_cell_gen_3__unit_cell/R_reg_4_
*860 unit_cell_gen_3__unit_cell/R_reg_3_
*861 unit_cell_gen_3__unit_cell/R_reg_2_
*862 unit_cell_gen_3__unit_cell/R_reg_1_
*863 unit_cell_gen_3__unit_cell/P_reg_1_
*864 unit_cell_gen_3__unit_cell/P_reg_0_
*865 unit_cell_gen_3__unit_cell/P_reg_2_
*866 unit_cell_gen_3__unit_cell/U3
*867 unit_cell_gen_3__unit_cell/U4
*868 unit_cell_gen_3__unit_cell/U5
*869 unit_cell_gen_3__unit_cell/U6
*870 unit_cell_gen_3__unit_cell/U8
*871 unit_cell_gen_3__unit_cell/U9
*872 unit_cell_gen_3__unit_cell/U10
*873 unit_cell_gen_3__unit_cell/U12
*874 unit_cell_gen_3__unit_cell/U13
*875 unit_cell_gen_3__unit_cell/U14
*876 unit_cell_gen_3__unit_cell/U15
*877 unit_cell_gen_3__unit_cell/U16
*878 unit_cell_gen_3__unit_cell/U17
*879 unit_cell_gen_3__unit_cell/U18
*880 unit_cell_gen_3__unit_cell/U19
*881 unit_cell_gen_3__unit_cell/U20
*882 unit_cell_gen_3__unit_cell/U21
*883 unit_cell_gen_3__unit_cell/U22
*884 unit_cell_gen_3__unit_cell/U23
*885 unit_cell_gen_3__unit_cell/U24
*886 unit_cell_gen_3__unit_cell/U25
*887 unit_cell_gen_3__unit_cell/U26
*888 unit_cell_gen_3__unit_cell/U27